Circuit: * C:\Users\steve\Documents\School\Summer 2024\Independent Study\Simulation\Analog Measurement.asc

Instance "m:u7:6": Length shorter than recommended for a level 2 MOSFET.
Instance "m:u7:5": Length shorter than recommended for a level 2 MOSFET.
Instance "m:u7:4": Length shorter than recommended for a level 2 MOSFET.
Instance "m:u7:3": Length shorter than recommended for a level 2 MOSFET.
Instance "m:u7:2": Length shorter than recommended for a level 2 MOSFET.
Instance "m:u7:1": Length shorter than recommended for a level 2 MOSFET.
Instance "m:u6:6": Length shorter than recommended for a level 2 MOSFET.
Instance "m:u6:5": Length shorter than recommended for a level 2 MOSFET.
Instance "m:u6:4": Length shorter than recommended for a level 2 MOSFET.
Instance "m:u6:3": Length shorter than recommended for a level 2 MOSFET.
Instance "m:u6:2": Length shorter than recommended for a level 2 MOSFET.
Instance "m:u6:1": Length shorter than recommended for a level 2 MOSFET.
Instance "m:u5:6": Length shorter than recommended for a level 2 MOSFET.
Instance "m:u5:5": Length shorter than recommended for a level 2 MOSFET.
Instance "m:u5:4": Length shorter than recommended for a level 2 MOSFET.
Instance "m:u5:3": Length shorter than recommended for a level 2 MOSFET.
Instance "m:u5:2": Length shorter than recommended for a level 2 MOSFET.
Instance "m:u5:1": Length shorter than recommended for a level 2 MOSFET.
Instance "m:u4:6": Length shorter than recommended for a level 2 MOSFET.
Instance "m:u4:5": Length shorter than recommended for a level 2 MOSFET.
Instance "m:u4:4": Length shorter than recommended for a level 2 MOSFET.
Instance "m:u4:3": Length shorter than recommended for a level 2 MOSFET.
Instance "m:u4:2": Length shorter than recommended for a level 2 MOSFET.
Instance "m:u4:1": Length shorter than recommended for a level 2 MOSFET.
Instance "m:u3:6": Length shorter than recommended for a level 2 MOSFET.
Instance "m:u3:5": Length shorter than recommended for a level 2 MOSFET.
Instance "m:u3:4": Length shorter than recommended for a level 2 MOSFET.
Instance "m:u3:3": Length shorter than recommended for a level 2 MOSFET.
Instance "m:u3:2": Length shorter than recommended for a level 2 MOSFET.
Instance "m:u3:1": Length shorter than recommended for a level 2 MOSFET.
Direct Newton iteration failed to find .op point.  (Use ".option noopiter" to skip.)
Starting Gmin stepping
Gmin = 10
Gmin = 1.07374
Gmin = 0.115292
Gmin = 0.0123794
Gmin = 0.00132923
Gmin = 0.000142725
Gmin = 1.5325e-005
vernier = 0.5
vernier = 0.25
vernier = 0.125
vernier = 0.0625
vernier = 0.03125
vernier = 0.015625
vernier = 0.0078125
vernier = 0.00390625
Gmin = 1.226e-005
vernier = 0.00195313
vernier = 0.000976563
vernier = 0.000488281
Gmin = 0
Gmin stepping failed

Starting source stepping with srcstepmethod=0
Source Step = 3.0303%
vernier = 0.25
Source Step = 7.57576%
Source Step = 15.1515%
Source Step = 22.7273%
Source Step = 30.303%
Source Step = 35.6534%
vernier = 0.00390625
Source Step = 35.6327%
Source Step = 35.6623%
Source Step = 35.6919%
Source Step = 35.7215%
Source Step = 35.7511%
vernier = 0.00146484
Source Step = 35.7895%
Source Step = 35.8339%
Source Step = 35.8783%
Source Step = 35.9227%
Source Step = 35.9671%
vernier = 0.00219727
Source Step = 36.0226%
Source Step = 36.0892%
Source Step = 36.1557%
Source Step = 36.2223%
Source Step = 36.2889%
vernier = 0.0032959
Source Step = 36.3688%
Source Step = 36.4687%
Source Step = 36.5686%
Source Step = 36.6684%
Source Step = 36.7683%
vernier = 0.00494385
Source Step = 36.8832%
Source Step = 37.033%
Source Step = 37.1828%
Source Step = 37.3326%
Source Step = 37.4824%
vernier = 0.00741577
Source Step = 37.6472%
Source Step = 37.8719%
Source Step = 38.0967%
Source Step = 38.3214%
Source Step = 38.5461%
vernier = 0.0111237
Source Step = 38.7821%
Source Step = 39.1191%
Source Step = 39.4562%
Source Step = 39.7933%
Source Step = 40.1304%
Source Step = 40.4675%
vernier = 0.0166855
Source Step = 40.9731%
Source Step = 41.4787%
Source Step = 41.9843%
Source Step = 42.4899%
Source Step = 42.9956%
vernier = 0.0250282
Source Step = 43.7287%
Source Step = 44.4871%
Source Step = 45.2456%
Source Step = 46.004%
Source Step = 46.7624%
vernier = 0.0375423
Source Step = 47.8242%
Source Step = 48.9619%
Source Step = 50.0995%
Source Step = 51.2372%
Source Step = 52.3748%
vernier = 0.0563135
Source Step = 53.9107%
Source Step = 55.6171%
Source Step = 57.3236%
Source Step = 59.0301%
Source Step = 60.7365%
vernier = 0.0844703
Source Step = 62.9549%
Source Step = 65.5147%
Source Step = 68.0744%
Source Step = 70.6341%
Source Step = 73.1938%
vernier = 0.126705
Source Step = 76.3934%
Source Step = 80.233%
Source Step = 84.0725%
Source Step = 87.9121%
Source Step = 91.7516%
vernier = 0.190058
Source Step = 96.3591%
Source Step = 100%
Source stepping succeeded in finding the operating point.

.step rvar=1000 rtrans=10000
.step rvar=10000 rtrans=10000
.step rvar=100000 rtrans=10000
.step rvar=1000 rtrans=100000
.step rvar=10000 rtrans=100000
.step rvar=100000 rtrans=100000
.step rvar=1000 rtrans=1e+006
.step rvar=10000 rtrans=1e+006
.step rvar=100000 rtrans=1e+006

Date: Sat Jul 20 13:26:20 2024
Total elapsed time: 36.256 seconds.

tnom = 27
temp = 27
method = modified trap
totiter = 8556
traniter = 3910
tranpoints = 1956
accept = 1511
rejected = 445
matrix size = 204
fillins = 221
solver = Normal
Thread vector: 15.1/10.4[4] 5.6/3.4[4] 6.1/3.4[4] 0.5/1.5[1]  2592/500
Matrix Compiler1:    1203 opcodes  4.8/1.9/[2.0]
Matrix Compiler2: 22.44 KB object code size  1.5/2.3/[1.0]

