Circuit: * C:\Users\steve\Documents\School\Summer 2024\Independent Study\Simulation\Power Supply.asc

Direct Newton iteration failed to find .op point.  (Use ".option noopiter" to skip.)
Starting Gmin stepping
Gmin = 10
Gmin = 1.07374
Gmin = 0.115292
Gmin = 0.0123794
Gmin = 0.00132923
vernier = 0.5
vernier = 0.25
vernier = 0.125
vernier = 0.0625
Gmin = 0.00100083
vernier = 0.03125
vernier = 0.015625
vernier = 0.0078125
vernier = 0.00390625
vernier = 0.00195313
Gmin = 0.00100083
vernier = 0.000976563
vernier = 0.000488281
Gmin = 0
Gmin stepping failed

Starting source stepping with srcstepmethod=0
Source Step = 3.0303%
Source Step = 18.2765%
Source Step = 18.3446%
Source Step = 18.3742%
Source Step = 18.4038%
Source Step = 18.4334%
Source Step = 18.4629%
Source Step = 18.4925%
Source Step = 18.5221%
Source Step = 18.5517%
Source Step = 18.5813%
vernier = 0.00146484
Source Step = 18.6198%
Source Step = 18.6642%
Source Step = 18.7086%
Source Step = 18.753%
Source Step = 18.7973%
vernier = 0.00219727
Source Step = 18.8528%
Source Step = 18.9194%
Source Step = 18.986%
Source Step = 19.0526%
Source Step = 19.1192%
vernier = 0.0032959
Source Step = 19.1991%
Source Step = 19.2989%
Source Step = 19.3988%
Source Step = 19.4987%
Source Step = 19.5986%
vernier = 0.00494385
Source Step = 19.7134%
Source Step = 19.8632%
Source Step = 20.0131%
Source Step = 20.1629%
Source Step = 20.3127%
vernier = 0.00741577
Source Step = 20.4775%
Source Step = 20.7022%
Source Step = 20.9269%
Source Step = 21.1516%
Source Step = 21.3764%
vernier = 0.0111237
Source Step = 21.6123%
Source Step = 21.9494%
Source Step = 22.2865%
Source Step = 22.6236%
Source Step = 22.9606%
Source Step = 23.2977%
vernier = 0.0166855
Source Step = 23.8033%
Source Step = 24.309%
Source Step = 24.8146%
Source Step = 25.3202%
Source Step = 25.8258%
vernier = 0.0250282
Source Step = 26.559%
Source Step = 27.3174%
Source Step = 28.0758%
Source Step = 28.8343%
Source Step = 29.5927%
vernier = 0.0375423
Source Step = 30.6545%
Source Step = 31.3371%
vernier = 0.0023464
Source Step = 31.3798%
Source Step = 31.4509%
Source Step = 31.522%
Source Step = 31.5931%
Source Step = 31.6642%
vernier = 0.00351959
Source Step = 31.7637%
Source Step = 31.8704%
Source Step = 31.977%
Source Step = 32.0837%
Source Step = 32.1903%
vernier = 0.00527939
Source Step = 32.3343%
Source Step = 32.4943%
Source Step = 32.6543%
Source Step = 32.8143%
Source Step = 32.9742%
vernier = 0.00791909
Source Step = 33.1822%
Source Step = 33.4222%
Source Step = 33.6622%
Source Step = 33.9021%
Source Step = 34.1421%
vernier = 0.0118786
Source Step = 34.4421%
Source Step = 34.802%
Source Step = 35.162%
Source Step = 35.5219%
Source Step = 35.8819%
vernier = 0.0178179
Source Step = 36.3139%
Source Step = 36.8538%
Source Step = 37.3937%
Source Step = 37.9337%
Source Step = 38.4736%
vernier = 0.0267269
Source Step = 39.0945%
Source Step = 39.9044%
Source Step = 40.7143%
Source Step = 41.5243%
Source Step = 42.3342%
vernier = 0.0400904
Source Step = 43.2251%
Source Step = 44.4399%
Source Step = 45.6548%
Source Step = 46.8696%
Source Step = 48.0845%
vernier = 0.0601356
Source Step = 49.3601%
Source Step = 51.1824%
Source Step = 53.0047%
Source Step = 54.827%
Source Step = 55.9203%
vernier = 0.00375847
Source Step = 55.926%
Source Step = 55.9545%
Source Step = 55.983%
Source Step = 56.0115%
Source Step = 56.0399%
Source Step = 56.0684%
vernier = 0.00140943
Source Step = 56.1083%
Source Step = 56.151%
Source Step = 56.1937%
Source Step = 56.2364%
Source Step = 56.2791%
vernier = 0.00211414
Source Step = 56.3368%
Source Step = 56.4008%
Source Step = 56.4649%
Source Step = 56.529%
Source Step = 56.593%
vernier = 0.00317121
Source Step = 56.6763%
Source Step = 56.7724%
Source Step = 56.8685%
Source Step = 56.9646%
Source Step = 57.0607%
vernier = 0.00475682
Source Step = 57.1808%
Source Step = 57.325%
Source Step = 57.4691%
Source Step = 57.6133%
Source Step = 57.7574%
vernier = 0.00713523
Source Step = 57.9304%
Source Step = 58.1466%
Source Step = 58.3628%
Source Step = 58.579%
Source Step = 58.7953%
vernier = 0.0107028
Source Step = 59.0439%
Source Step = 59.3682%
Source Step = 59.6926%
Source Step = 60.0169%
Source Step = 60.3412%
vernier = 0.0160543
Source Step = 60.698%
Source Step = 61.1845%
Source Step = 61.671%
Source Step = 62.1575%
Source Step = 62.644%
vernier = 0.0240814
Source Step = 63.1548%
Source Step = 63.8845%
Source Step = 64.6142%
Source Step = 65.344%
Source Step = 66.0737%
Source Step = 66.8035%
vernier = 0.0361221
Source Step = 67.8981%
Source Step = 68.9927%
Source Step = 70.0873%
Source Step = 71.1819%
Source Step = 72.2765%
vernier = 0.0541831
Source Step = 73.8637%
Source Step = 75.5056%
Source Step = 77.1475%
Source Step = 78.7894%
Source Step = 80.4313%
vernier = 0.0812747
Source Step = 82.73%
Source Step = 85.1929%
Source Step = 87.6558%
Source Step = 90.1186%
Source Step = 92.5815%
Source Step = 92.6084%
Source Step = 92.6469%
Source Step = 92.6854%
Source Step = 92.7239%
Source Step = 92.7624%
vernier = 0.00190488
Source Step = 92.8085%
Source Step = 92.8663%
Source Step = 92.924%
Source Step = 92.9817%
Source Step = 93.0394%
vernier = 0.00285731
Source Step = 93.1058%
Source Step = 93.1924%
Source Step = 93.279%
Source Step = 93.3656%
Source Step = 93.4522%
vernier = 0.00428597
Source Step = 93.5474%
Source Step = 93.6773%
Source Step = 93.8072%
Source Step = 93.937%
Source Step = 94.0669%
vernier = 0.00642896
Source Step = 94.2033%
Source Step = 94.3981%
Source Step = 94.5929%
Source Step = 94.7877%
Source Step = 94.9826%
Source Step = 95.1774%
vernier = 0.00964343
Source Step = 95.4696%
Source Step = 95.7618%
Source Step = 96.054%
Source Step = 96.3463%
Source Step = 96.6385%
vernier = 0.0144651
Source Step = 97.0622%
Source Step = 97.5006%
Source Step = 97.9389%
Source Step = 98.3772%
Source Step = 98.8156%
vernier = 0.0216977
Source Step = 99.4293%
Source stepping succeeded in finding the operating point.

Ignoring empty pin current: Ix(u1:2)
Ignoring empty pin current: Ix(u1:2)
Heightened Def Con from 0.0095501 to 0.0095501

Date: Wed Jul 03 11:21:49 2024
Total elapsed time: 38.552 seconds.

tnom = 27
temp = 27
method = modified trap
totiter = 1183923
traniter = 1172369
tranpoints = 478039
accept = 365786
rejected = 112254
matrix size = 43
fillins = 64
solver = Normal
Thread vector: 8.8/6.0[3] 3.9/3.0[3] 2.8/1.0[2] 0.2/0.6[1]  2592/500
Matrix Compiler1: 6.51 KB object code size  1.2/0.7/[0.5]
Matrix Compiler2: off  [0.4]/1.0/0.5

